<routes>
  <vTypeDistribution id="typedist1">
    <vType accel="4.6" color="0,1,0" decel="4.5" id="CarCACC" impatience="0.0" length="5.0" maxSpeed="70.0" minGap="4.0" probability="1.0" sigma="0.0" stepping="1.0" tau="2.05" />
    <vType accel="4.6" color="0.5,0.5,0" decel="4.5" id="CarACC" impatience="0.0" length="5.0" maxSpeed="70.0" minGap="1.0" probability="0.0" sigma="0.0" stepping="1.0" tau="0.85" />
    <vType accel="4.6" color="1,0,0" decel="4.5" id="CarM" impatience="0.0" length="5.0" maxSpeed="70.0" minGap="4.0" probability="0.0" sigma="0.0" stepping="1.0" tau="2.05" />
  </vTypeDistribution>

  <route edges="gneE2" id="1" />
  <flow begin="0" end="50000" id="type1" period="2" type="typedist1">
    <route departSpeed="20.0" edges="gneE2" />
  </flow>
  
</routes>