<?xml version="1.0" encoding="UTF-8"?>

<!-- generated on Fri 10 Nov 2017 11:54:42 AM PST by Netedit Version 0.30.0
<?xml version="1.0" encoding="UTF-8"?>

<configuration xmlns:xsi="http://www.w3.org/2001/XMLSchema-instance" xsi:noNamespaceSchemaLocation="http://sumo.dlr.de/xsd/netconvertConfiguration.xsd">

    <output>
        <output-file value="/home/david/sumo/networks/single_road/single.net.xml"/>
    </output>

    <processing>
        <no-turnarounds value="true"/>
        <offset.disable-normalization value="true"/>
    </processing>

</configuration>
-->

<net version="0.27" xmlns:xsi="http://www.w3.org/2001/XMLSchema-instance" xsi:noNamespaceSchemaLocation="http://sumo.dlr.de/xsd/net_file.xsd">

    <location netOffset="0.00,0.00" convBoundary="-87.43,49.73,760.61,74.85" origBoundary="10000000000.00,10000000000.00,-10000000000.00,-10000000000.00" projParameter="!"/>

    <edge id="gneE2" from="gneJ3" to="gneJ4" priority="1">
        <lane id="gneE2_0" index="0" speed="13.89" length="848.41" shape="-87.47,73.20 760.56,48.08"/>
    </edge>

    <junction id="gneJ3" type="dead_end" x="-87.43" y="74.85" incLanes="" intLanes="" shape="-87.43,74.80 -87.52,71.60"/>
    <junction id="gneJ4" type="dead_end" x="760.61" y="49.73" incLanes="gneE2_0" intLanes="" shape="760.51,46.48 760.61,49.68"/>

</net>
